Version 4
SHEET 1 880 680
WIRE 272 16 240 16
WIRE 384 16 352 16
WIRE 112 64 -32 64
WIRE 240 64 240 16
WIRE 240 64 112 64
WIRE 384 64 384 16
WIRE 496 64 384 64
WIRE 640 64 496 64
WIRE -32 112 -32 64
WIRE 240 112 240 64
WIRE 272 112 240 112
WIRE 384 112 384 64
WIRE 384 112 336 112
WIRE 640 112 640 64
WIRE 112 128 112 64
WIRE 496 128 496 64
WIRE -32 240 -32 192
WIRE 112 240 112 192
WIRE 112 240 -32 240
WIRE 496 240 496 192
WIRE 496 240 112 240
WIRE 640 240 640 192
WIRE 640 240 496 240
WIRE 112 256 112 240
FLAG 112 256 0
FLAG 112 64 V1
FLAG 496 64 V2
SYMBOL ind 256 32 R270
WINDOW 0 32 56 VTop 2
WINDOW 3 5 56 VBottom 2
SYMATTR InstName L2
SYMATTR Value 1.1893
SYMATTR SpiceLine Rser=0
SYMBOL cap 336 96 R90
WINDOW 0 0 32 VBottom 2
WINDOW 3 32 32 VTop 2
SYMATTR InstName C2
SYMATTR Value 0.093426
SYMBOL cap 96 128 R0
SYMATTR InstName C1
SYMATTR Value 1.58823
SYMBOL cap 480 128 R0
SYMATTR InstName C3
SYMATTR Value 0.41176
SYMBOL current -32 192 R180
WINDOW 0 24 80 Left 2
WINDOW 3 24 0 Left 2
WINDOW 123 17 -5 Left 2
WINDOW 39 0 0 Left 0
SYMATTR InstName I1
SYMATTR Value ""
SYMATTR Value2 AC 2
SYMBOL res 624 96 R0
SYMATTR InstName RL
SYMATTR Value 1
TEXT -144 264 Left 2 !.ac dec 1000 1m 10
