Version 4
SHEET 1 880 680
WIRE 96 64 -16 64
WIRE 240 64 160 64
WIRE 400 64 240 64
WIRE 240 96 240 64
WIRE 400 96 400 64
WIRE -16 144 -16 64
WIRE 240 192 240 160
WIRE 400 192 400 160
WIRE -16 304 -16 224
WIRE 240 304 240 272
WIRE 240 304 -16 304
WIRE 400 304 400 272
WIRE 400 304 240 304
WIRE -16 320 -16 304
FLAG -16 320 0
FLAG -16 64 Vi
SYMBOL cap 224 96 R0
SYMATTR InstName C2
SYMATTR Value 2
SYMBOL cap 384 96 R0
SYMATTR InstName C3
SYMATTR Value 0.333
SYMBOL ind 224 176 R0
SYMATTR InstName L2
SYMATTR Value 0.5
SYMATTR SpiceLine Rser=0
SYMBOL ind 384 176 R0
SYMATTR InstName L3
SYMATTR Value 1
SYMATTR SpiceLine Rser=0
SYMBOL voltage -16 128 R0
WINDOW 123 24 124 Left 2
WINDOW 39 0 0 Left 0
SYMATTR InstName V1
SYMATTR Value ""
SYMATTR Value2 AC 1
SYMBOL cap 160 48 R90
WINDOW 0 0 32 VBottom 2
WINDOW 3 32 32 VTop 2
SYMATTR InstName C1
SYMATTR Value 1
TEXT -320 240 Left 2 !.ac dec 1000 1m 10
TEXT -320 280 Left 2 !.net V(vi) V1
