Version 4
SHEET 1 880 680
WIRE 176 112 48 112
WIRE 336 112 240 112
WIRE 432 112 336 112
WIRE 544 112 496 112
WIRE 672 112 624 112
WIRE 336 144 336 112
WIRE 48 192 48 112
WIRE 336 240 336 208
WIRE 48 352 48 272
WIRE 336 352 336 320
WIRE 336 352 48 352
WIRE 672 352 336 352
WIRE 336 368 336 352
FLAG 336 368 0
FLAG 48 112 Vi
FLAG 672 112 Vo
SYMBOL voltage 48 176 R0
WINDOW 123 24 124 Left 2
WINDOW 39 0 0 Left 0
SYMATTR InstName V1
SYMATTR Value ""
SYMATTR Value2 AC 1
SYMBOL cap 240 96 R90
WINDOW 0 0 32 VBottom 2
WINDOW 3 32 32 VTop 2
SYMATTR InstName C1
SYMATTR Value 1
SYMBOL ind 320 224 R0
SYMATTR InstName L2
SYMATTR Value 0.5
SYMATTR SpiceLine Rser=0
SYMBOL cap 320 144 R0
SYMATTR InstName C2
SYMATTR Value 2
SYMBOL ind 528 128 R270
WINDOW 0 32 56 VTop 2
WINDOW 3 5 56 VBottom 2
SYMATTR InstName L3
SYMATTR Value 1
SYMATTR SpiceLine Rser=0
SYMBOL cap 496 96 R90
WINDOW 0 0 32 VBottom 2
WINDOW 3 32 32 VTop 2
SYMATTR InstName C3
SYMATTR Value 0.3333
TEXT -208 304 Left 2 !.ac dec 1000 10m 10
TEXT -208 336 Left 2 !.net V(vo) V1
