Version 4
SHEET 1 880 680
WIRE 16 -128 -224 -128
WIRE 272 -128 96 -128
WIRE 80 -64 -176 -64
WIRE -176 16 -176 -64
WIRE -144 16 -176 16
WIRE -48 32 -80 32
WIRE -32 32 -48 32
WIRE 80 32 80 -64
WIRE 80 32 48 32
WIRE 128 32 80 32
WIRE 272 32 272 -128
WIRE 272 32 192 32
WIRE -336 48 -400 48
WIRE -224 48 -224 -128
WIRE -224 48 -256 48
WIRE -144 48 -224 48
WIRE -400 64 -400 48
WIRE 80 128 80 32
WIRE 112 128 80 128
WIRE 272 144 272 32
WIRE 272 144 176 144
WIRE 320 144 272 144
WIRE 448 144 400 144
WIRE -48 160 -48 32
WIRE -32 160 -48 160
WIRE 80 160 48 160
WIRE 112 160 80 160
WIRE 272 192 272 144
WIRE 448 192 448 144
WIRE 80 224 80 160
FLAG 448 256 0
FLAG 272 256 0
FLAG -400 144 0
FLAG -400 48 Vi
FLAG 448 144 Vo
FLAG 80 304 0
SYMBOL res -352 64 R270
WINDOW 0 32 56 VTop 2
WINDOW 3 0 56 VBottom 2
SYMATTR InstName R6
SYMATTR Value 1
SYMBOL cap 256 192 R0
SYMATTR InstName C1
SYMATTR Value 1
SYMBOL res 416 128 R90
WINDOW 0 0 56 VBottom 2
WINDOW 3 32 56 VTop 2
SYMATTR InstName R7
SYMATTR Value 1
SYMBOL cap 432 192 R0
SYMATTR InstName C3
SYMATTR Value 1
SYMBOL voltage -400 48 R0
WINDOW 123 24 124 Left 2
WINDOW 39 0 0 Left 0
SYMATTR Value2 AC 1
SYMATTR InstName V1
SYMATTR Value ""
SYMBOL OpAmps\\opamp 144 80 R0
SYMATTR InstName U1
SYMBOL OpAmps\\opamp -112 -32 R0
SYMATTR InstName U2
SYMBOL res 64 16 R90
WINDOW 0 0 56 VBottom 2
WINDOW 3 32 56 VTop 2
SYMATTR InstName R3
SYMATTR Value 1
SYMBOL res 64 144 R90
WINDOW 0 0 56 VBottom 2
WINDOW 3 32 56 VTop 2
SYMATTR InstName R4
SYMATTR Value 1
SYMBOL res 96 320 R180
WINDOW 0 36 76 Left 2
WINDOW 3 36 40 Left 2
SYMATTR InstName R5
SYMATTR Value 1
SYMBOL res 0 -112 R270
WINDOW 0 32 56 VTop 2
WINDOW 3 0 56 VBottom 2
SYMATTR InstName R1
SYMATTR Value 1
SYMBOL cap 192 16 R90
WINDOW 0 0 32 VBottom 2
WINDOW 3 32 32 VTop 2
SYMATTR InstName C2
SYMATTR Value 1
TEXT -128 344 Left 2 !.lib opamp.sub
TEXT -128 368 Left 2 !.ac dec 1000 0.001 1k
