Version 4
SHEET 1 912 680
WIRE 432 -80 160 -80
WIRE 864 -80 512 -80
WIRE 160 0 160 -80
WIRE 208 0 160 0
WIRE 320 0 288 0
WIRE 640 0 624 0
WIRE 736 0 720 0
WIRE 768 0 736 0
WIRE 864 0 864 -80
WIRE 864 0 848 0
WIRE 160 96 160 0
WIRE 208 96 160 96
WIRE 320 96 320 0
WIRE 320 96 272 96
WIRE 736 96 736 0
WIRE 736 96 704 96
WIRE 528 112 496 112
WIRE 624 112 624 0
WIRE 624 112 592 112
WIRE 640 112 624 112
WIRE 736 128 704 128
WIRE 736 160 736 128
WIRE -16 192 -64 192
WIRE 160 192 160 96
WIRE 160 192 64 192
WIRE 224 192 160 192
WIRE 320 208 320 96
WIRE 320 208 288 208
WIRE 384 208 320 208
WIRE 496 208 496 112
WIRE 496 208 464 208
WIRE 560 208 496 208
WIRE -64 224 -64 192
WIRE 224 224 208 224
WIRE 864 224 864 0
WIRE 864 224 624 224
WIRE 560 240 544 240
WIRE 208 256 208 224
WIRE 544 272 544 240
FLAG 208 256 0
FLAG 544 272 0
FLAG 736 160 0
FLAG -64 192 Vi
FLAG 864 224 Vo
FLAG -64 304 0
SYMBOL res 80 176 R90
WINDOW 0 0 56 VBottom 2
WINDOW 3 32 56 VTop 2
SYMATTR InstName R1
SYMATTR Value 1
SYMBOL res 304 -16 R90
WINDOW 0 0 56 VBottom 2
WINDOW 3 32 56 VTop 2
SYMATTR InstName R2
SYMATTR Value 0.707
SYMBOL res 480 192 R90
WINDOW 0 0 56 VBottom 2
WINDOW 3 32 56 VTop 2
SYMATTR InstName R3b
SYMATTR Value 1
SYMBOL res 736 -16 R90
WINDOW 0 0 56 VBottom 2
WINDOW 3 32 56 VTop 2
SYMATTR InstName R4a
SYMATTR Value 1
SYMBOL res 864 -16 R90
WINDOW 0 0 56 VBottom 2
WINDOW 3 32 56 VTop 2
SYMATTR InstName R4b
SYMATTR Value 1
SYMBOL res 528 -96 R90
WINDOW 0 0 56 VBottom 2
WINDOW 3 32 56 VTop 2
SYMATTR InstName R3a
SYMATTR Value 1
SYMBOL OpAmps\\opamp 256 144 R0
SYMATTR InstName U1
SYMBOL OpAmps\\opamp 592 288 M180
SYMATTR InstName U2
SYMBOL OpAmps\\opamp 672 48 M0
SYMATTR InstName U3
SYMBOL cap 592 96 R90
WINDOW 0 0 32 VBottom 2
WINDOW 3 32 32 VTop 2
SYMATTR InstName C2
SYMATTR Value 1
SYMBOL cap 272 80 R90
WINDOW 0 0 32 VBottom 2
WINDOW 3 32 32 VTop 2
SYMATTR InstName C1
SYMATTR Value 1
SYMBOL voltage -64 208 R0
WINDOW 123 24 124 Left 2
WINDOW 39 0 0 Left 0
SYMATTR Value2 AC 1
SYMATTR InstName Vi
SYMATTR Value ""
TEXT 352 344 Left 2 !.lib opamp.sub
TEXT 352 368 Left 2 !.ac lin 10000 0.01 10
