Version 4
SHEET 1 880 680
WIRE 112 0 -64 0
WIRE 400 0 192 0
WIRE -64 96 -64 0
WIRE -64 96 -240 96
WIRE 32 96 -64 96
WIRE 400 96 400 0
WIRE 400 96 288 96
WIRE -240 128 -240 96
WIRE -64 128 -64 96
WIRE 400 128 400 96
WIRE -240 240 -240 208
WIRE -64 240 -64 208
WIRE -64 240 -240 240
WIRE 32 240 -64 240
WIRE 400 240 400 208
WIRE 400 240 288 240
WIRE -64 256 -64 240
WIRE 400 256 400 240
FLAG -64 256 0
FLAG 400 256 0
FLAG -64 96 1
FLAG -64 240 2
FLAG 400 240 4
FLAG 400 96 V2
SYMBOL res -80 112 R0
SYMATTR InstName R1
SYMATTR Value 1
SYMBOL res 208 -16 R90
WINDOW 0 0 56 VBottom 2
WINDOW 3 32 56 VTop 2
SYMATTR InstName R2
SYMATTR Value 2
SYMBOL res 416 224 R180
WINDOW 0 36 76 Left 2
WINDOW 3 36 40 Left 2
SYMATTR InstName R3
SYMATTR Value 3
SYMBOL voltage -240 112 R0
WINDOW 123 24 124 Left 2
WINDOW 39 0 0 Left 0
SYMATTR InstName V1
SYMATTR Value ""
SYMATTR Value2 AC 1
SYMBOL trafo_ideal 144 160 R0
WINDOW 0 16 -70 Bottom 2
SYMATTR InstName X1
TEXT -240 336 Left 2 !.ac dec 100 .001 100
TEXT -240 408 Left 2 !.net V(v2) V1
TEXT -264 304 Left 2 ;Directiva para análisis AC
TEXT -264 376 Left 2 ;Directiva para obtención de parámetros del cuadripolo
TEXT 136 256 Left 2 ;a=1
